                              1 ; ibm_fixed.ms - fixed width IBM font
                              2 	;; BANKED:	checked, imperfect
                              3 	.area	_BASE
                              4 
                              5 	; 898 bytes giving ' '-'0'-'@'-'A'-'Z'-'???'-'a'-'z'-127
   0000                       6 _font_ibm::
   0000 05                    7 	.byte	1+4		; 128 character encoding
   0001 60                    8 	.byte	128-32		; Tiles required
                              9 
   0002 00 00 00 00 00 00    10 	.byte	0,0,0,0,0,0,0,0,0,0,0,0,0,0,0,0		; All map to space
        00 00 00 00 00 00
        00 00 00 00
   0012 00 00 00 00 00 00    11 	.byte	0,0,0,0,0,0,0,0,0,0,0,0,0,0,0,0
        00 00 00 00 00 00
        00 00 00 00
   0022 00 01 02 03 04 05    12 	.byte	0,1,2,3,4,5,6,7,8,9,10,11,12,13,14,15	; 0x20
        06 07 08 09 0A 0B
        0C 0D 0E 0F
   0032 10 11 12 13 14 15    13 	.byte	16,17,18,19,20,21,22,23,24,25,26,27,28,29,30,31
        16 17 18 19 1A 1B
        1C 1D 1E 1F
   0042 20 21 22 23 24 25    14 	.byte	32,33,34,35,36,37,38,39,40,41,42,43,44,45,46,47 ; 0x40
        26 27 28 29 2A 2B
        2C 2D 2E 2F
   0052 30 31 32 33 34 35    15 	.byte	48,49,50,51,52,53,54,55,56,57,58,59,60,61,62,63
        36 37 38 39 3A 3B
        3C 3D 3E 3F
   0062 40 41 42 43 44 45    16 	.byte	64,65,66,67,68,69,70,71,72,73,74,75,76,77,78,79 ; 0x60
        46 47 48 49 4A 4B
        4C 4D 4E 4F
   0072 50 51 52 53 54 55    17 	.byte	80,81,82,83,84,85,86,87,88,89,90,91,92,93,94,95
        56 57 58 59 5A 5B
        5C 5D 5E 5F
                             18 	
   0082 00 00 00 00 00 00    19 	.byte	0x00,0x00,0x00,0x00,0x00,0x00,0x00,0x00
        00 00
   008A 18 18 18 18 18 00    20 	.byte	0x18,0x18,0x18,0x18,0x18,0x00,0x18,0x00
        18 00
   0092 66 66 44 00 00 00    21 	.byte	0x66,0x66,0x44,0x00,0x00,0x00,0x00,0x00
        00 00
   009A 00 24 7E 24 24 7E    22 	.byte	0x00,0x24,0x7E,0x24,0x24,0x7E,0x24,0x00
        24 00
   00A2 14 3E 55 3C 1E 55    23 	.byte	0x14,0x3E,0x55,0x3C,0x1E,0x55,0x3E,0x14
        3E 14
   00AA 62 66 0C 18 30 66    24 	.byte	0x62,0x66,0x0C,0x18,0x30,0x66,0x46,0x00
        46 00
   00B2 78 CC 61 CE CC CC    25 	.byte	0x78,0xCC,0x61,0xCE,0xCC,0xCC,0x78,0x00
        78 00
   00BA 18 18 10 00 00 00    26 	.byte	0x18,0x18,0x10,0x00,0x00,0x00,0x00,0x00
        00 00
   00C2 04 08 18 18 18 18    27 	.byte	0x04,0x08,0x18,0x18,0x18,0x18,0x08,0x04
        08 04
   00CA 20 10 18 18 18 18    28 	.byte	0x20,0x10,0x18,0x18,0x18,0x18,0x10,0x20
        10 20
   00D2 00 54 38 FE 38 54    29 	.byte	0x00,0x54,0x38,0xFE,0x38,0x54,0x00,0x00
        00 00
   00DA 00 18 18 7E 18 18    30 	.byte	0x00,0x18,0x18,0x7E,0x18,0x18,0x00,0x00
        00 00
   00E2 00 00 00 00 00 30    31 	.byte	0x00,0x00,0x00,0x00,0x00,0x30,0x30,0x20
        30 20
   00EA 00 00 00 3C 00 00    32 	.byte	0x00,0x00,0x00,0x3C,0x00,0x00,0x00,0x00
        00 00
   00F2 00 00 00 00 00 18    33 	.byte	0x00,0x00,0x00,0x00,0x00,0x18,0x18,0x00
        18 00
   00FA 03 06 0C 18 30 60    34 	.byte	0x03,0x06,0x0C,0x18,0x30,0x60,0xC0,0x00
        C0 00
   0102 3C 66 6E 76 66 66    35 	.byte	0x3C,0x66,0x6E,0x76,0x66,0x66,0x3C,0x00
        3C 00
   010A 18 38 18 18 18 18    36 	.byte	0x18,0x38,0x18,0x18,0x18,0x18,0x18,0x00
        18 00
   0112 3C 66 0E 1C 38 70    37 	.byte	0x3C,0x66,0x0E,0x1C,0x38,0x70,0x7E,0x00
        7E 00
   011A 7E 0C 18 3C 06 46    38 	.byte	0x7E,0x0C,0x18,0x3C,0x06,0x46,0x3C,0x00
        3C 00
   0122 0C 1C 2C 4C 7E 0C    39 	.byte	0x0C,0x1C,0x2C,0x4C,0x7E,0x0C,0x0C,0x00
        0C 00
   012A 7E 60 7C 06 06 46    40 	.byte	0x7E,0x60,0x7C,0x06,0x06,0x46,0x3C,0x00
        3C 00
   0132 1C 20 60 7C 66 66    41 	.byte	0x1C,0x20,0x60,0x7C,0x66,0x66,0x3C,0x00
        3C 00
   013A 7E 06 0E 1C 18 18    42 	.byte	0x7E,0x06,0x0E,0x1C,0x18,0x18,0x18,0x00
        18 00
   0142 3C 66 66 3C 66 66    43 	.byte	0x3C,0x66,0x66,0x3C,0x66,0x66,0x3C,0x00
        3C 00
   014A 3C 66 66 3E 06 0C    44 	.byte	0x3C,0x66,0x66,0x3E,0x06,0x0C,0x38,0x00
        38 00
   0152 00 18 18 00 00 18    45 	.byte	0x00,0x18,0x18,0x00,0x00,0x18,0x18,0x00
        18 00
   015A 00 18 18 00 18 18    46 	.byte	0x00,0x18,0x18,0x00,0x18,0x18,0x10,0x00
        10 00
   0162 06 0C 18 30 18 0C    47 	.byte	0x06,0x0C,0x18,0x30,0x18,0x0C,0x06,0x00
        06 00
   016A 00 00 3C 00 00 3C    48 	.byte	0x00,0x00,0x3C,0x00,0x00,0x3C,0x00,0x00
        00 00
   0172 60 30 18 0C 18 30    49 	.byte	0x60,0x30,0x18,0x0C,0x18,0x30,0x60,0x00
        60 00
   017A 3C 46 06 0C 18 18    50 	.byte	0x3C,0x46,0x06,0x0C,0x18,0x18,0x00,0x18
        00 18
   0182 3C 66 6E 6A 6E 60    51 	.byte	0x3C,0x66,0x6E,0x6A,0x6E,0x60,0x3C,0x00
        3C 00
   018A 3C 66 66 7E 66 66    52 	.byte	0x3C,0x66,0x66,0x7E,0x66,0x66,0x66,0x00
        66 00
   0192 7C 66 66 7C 66 66    53 	.byte	0x7C,0x66,0x66,0x7C,0x66,0x66,0x7C,0x00
        7C 00
   019A 3C 62 60 60 60 62    54 	.byte	0x3C,0x62,0x60,0x60,0x60,0x62,0x3C,0x00
        3C 00
   01A2 7C 66 66 66 66 66    55 	.byte	0x7C,0x66,0x66,0x66,0x66,0x66,0x7C,0x00
        7C 00
   01AA 7E 60 60 7C 60 60    56 	.byte	0x7E,0x60,0x60,0x7C,0x60,0x60,0x7E,0x00
        7E 00
   01B2 7E 60 60 7C 60 60    57 	.byte	0x7E,0x60,0x60,0x7C,0x60,0x60,0x60,0x00
        60 00
   01BA 3C 62 60 6E 66 66    58 	.byte	0x3C,0x62,0x60,0x6E,0x66,0x66,0x3E,0x00
        3E 00
   01C2 66 66 66 7E 66 66    59 	.byte	0x66,0x66,0x66,0x7E,0x66,0x66,0x66,0x00
        66 00
   01CA 18 18 18 18 18 18    60 	.byte	0x18,0x18,0x18,0x18,0x18,0x18,0x18,0x00
        18 00
   01D2 06 06 06 06 06 46    61 	.byte	0x06,0x06,0x06,0x06,0x06,0x46,0x3C,0x00
        3C 00
   01DA 66 6C 78 70 78 6C    62 	.byte	0x66,0x6C,0x78,0x70,0x78,0x6C,0x66,0x00
        66 00
   01E2 60 60 60 60 60 60    63 	.byte	0x60,0x60,0x60,0x60,0x60,0x60,0x7C,0x00
        7C 00
   01EA FC D6 D6 D6 D6 C6    64 	.byte	0xFC,0xD6,0xD6,0xD6,0xD6,0xC6,0xC6,0x00
        C6 00
   01F2 62 72 7A 5E 4E 46    65 	.byte	0x62,0x72,0x7A,0x5E,0x4E,0x46,0x42,0x00
        42 00
   01FA 3C 66 66 66 66 66    66 	.byte	0x3C,0x66,0x66,0x66,0x66,0x66,0x3C,0x00
        3C 00
   0202 7C 66 66 7C 60 60    67 	.byte	0x7C,0x66,0x66,0x7C,0x60,0x60,0x60,0x00
        60 00
   020A 3C 66 66 66 66 66    68 	.byte	0x3C,0x66,0x66,0x66,0x66,0x66,0x3C,0x06
        3C 06
   0212 7C 66 66 7C 66 66    69 	.byte	0x7C,0x66,0x66,0x7C,0x66,0x66,0x66,0x00
        66 00
   021A 3C 62 70 3C 0E 46    70 	.byte	0x3C,0x62,0x70,0x3C,0x0E,0x46,0x3C,0x00
        3C 00
   0222 7E 18 18 18 18 18    71 	.byte	0x7E,0x18,0x18,0x18,0x18,0x18,0x18,0x00
        18 00
   022A 66 66 66 66 66 66    72 	.byte	0x66,0x66,0x66,0x66,0x66,0x66,0x3C,0x00
        3C 00
   0232 66 66 66 66 66 64    73 	.byte	0x66,0x66,0x66,0x66,0x66,0x64,0x78,0x00
        78 00
   023A C6 C6 C6 D6 D6 D6    74 	.byte	0xC6,0xC6,0xC6,0xD6,0xD6,0xD6,0xFC,0x00
        FC 00
   0242 66 66 66 3C 66 66    75 	.byte	0x66,0x66,0x66,0x3C,0x66,0x66,0x66,0x00
        66 00
   024A 66 66 66 3C 18 18    76 	.byte	0x66,0x66,0x66,0x3C,0x18,0x18,0x18,0x00
        18 00
   0252 7E 0E 1C 38 70 60    77 	.byte	0x7E,0x0E,0x1C,0x38,0x70,0x60,0x7E,0x00
        7E 00
   025A 1E 18 18 18 18 18    78 	.byte	0x1E,0x18,0x18,0x18,0x18,0x18,0x1E,0x00
        1E 00
   0262 40 60 30 18 0C 06    79 	.byte	0x40,0x60,0x30,0x18,0x0C,0x06,0x02,0x00
        02 00
   026A 78 18 18 18 18 18    80 	.byte	0x78,0x18,0x18,0x18,0x18,0x18,0x78,0x00
        78 00
   0272 10 38 6C 00 00 00    81 	.byte	0x10,0x38,0x6C,0x00,0x00,0x00,0x00,0x00
        00 00
   027A 00 00 00 00 00 00    82 	.byte	0x00,0x00,0x00,0x00,0x00,0x00,0x7E,0x00
        7E 00
   0282 00 C0 C0 60 00 00    83 	.byte	0x00,0xC0,0xC0,0x60,0x00,0x00,0x00,0x00
        00 00
   028A 00 3C 46 3E 66 66    84 	.byte	0x00,0x3C,0x46,0x3E,0x66,0x66,0x3E,0x00
        3E 00
   0292 60 7C 66 66 66 66    85 	.byte	0x60,0x7C,0x66,0x66,0x66,0x66,0x7C,0x00
        7C 00
   029A 00 3C 62 60 60 62    86 	.byte	0x00,0x3C,0x62,0x60,0x60,0x62,0x3C,0x00
        3C 00
   02A2 06 3E 66 66 66 66    87 	.byte	0x06,0x3E,0x66,0x66,0x66,0x66,0x3E,0x00
        3E 00
   02AA 00 3C 66 7E 60 62    88 	.byte	0x00,0x3C,0x66,0x7E,0x60,0x62,0x3C,0x00
        3C 00
   02B2 1E 30 7C 30 30 30    89 	.byte	0x1E,0x30,0x7C,0x30,0x30,0x30,0x30,0x00
        30 00
   02BA 00 3E 66 66 66 3E    90 	.byte	0x00,0x3E,0x66,0x66,0x66,0x3E,0x46,0x3C
        46 3C
   02C2 60 7C 66 66 66 66    91 	.byte	0x60,0x7C,0x66,0x66,0x66,0x66,0x66,0x00
        66 00
   02CA 18 00 18 18 18 18    92 	.byte	0x18,0x00,0x18,0x18,0x18,0x18,0x18,0x00
        18 00
   02D2 00 08 18 18 18 18    93 	.byte	0x00,0x08,0x18,0x18,0x18,0x18,0x58,0x30
        58 30
   02DA 60 64 68 70 78 6C    94 	.byte	0x60,0x64,0x68,0x70,0x78,0x6C,0x66,0x00
        66 00
   02E2 18 18 18 18 18 18    95 	.byte	0x18,0x18,0x18,0x18,0x18,0x18,0x0C,0x00
        0C 00
   02EA 00 FC D6 D6 D6 D6    96 	.byte	0x00,0xFC,0xD6,0xD6,0xD6,0xD6,0xC6,0x00
        C6 00
   02F2 00 7C 66 66 66 66    97 	.byte	0x00,0x7C,0x66,0x66,0x66,0x66,0x66,0x00
        66 00
   02FA 00 3C 66 66 66 66    98 	.byte	0x00,0x3C,0x66,0x66,0x66,0x66,0x3C,0x00
        3C 00
   0302 00 7C 66 66 66 7C    99 	.byte	0x00,0x7C,0x66,0x66,0x66,0x7C,0x60,0x60
        60 60
   030A 00 3E 66 66 66 66   100 	.byte	0x00,0x3E,0x66,0x66,0x66,0x66,0x3E,0x06
        3E 06
   0312 00 6C 70 60 60 60   101 	.byte	0x00,0x6C,0x70,0x60,0x60,0x60,0x60,0x00
        60 00
   031A 00 3C 72 38 1C 4E   102 	.byte	0x00,0x3C,0x72,0x38,0x1C,0x4E,0x3C,0x00
        3C 00
   0322 18 3C 18 18 18 18   103 	.byte	0x18,0x3C,0x18,0x18,0x18,0x18,0x0C,0x00
        0C 00
   032A 00 66 66 66 66 66   104 	.byte	0x00,0x66,0x66,0x66,0x66,0x66,0x3E,0x00
        3E 00
   0332 00 66 66 66 66 64   105 	.byte	0x00,0x66,0x66,0x66,0x66,0x64,0x78,0x00
        78 00
   033A 00 C6 C6 D6 D6 D6   106 	.byte	0x00,0xC6,0xC6,0xD6,0xD6,0xD6,0xFC,0x00
        FC 00
   0342 00 66 66 3C 66 66   107 	.byte	0x00,0x66,0x66,0x3C,0x66,0x66,0x66,0x00
        66 00
   034A 00 66 66 66 26 1E   108 	.byte	0x00,0x66,0x66,0x66,0x26,0x1E,0x46,0x3C
        46 3C
   0352 00 7E 0E 1C 38 70   109 	.byte	0x00,0x7E,0x0E,0x1C,0x38,0x70,0x7E,0x00
        7E 00
   035A 0E 18 18 30 18 18   110 	.byte	0x0E,0x18,0x18,0x30,0x18,0x18,0x0E,0x00
        0E 00
   0362 18 18 18 18 18 18   111 	.byte	0x18,0x18,0x18,0x18,0x18,0x18,0x18,0x18
        18 18
   036A 70 18 18 0C 18 18   112 	.byte	0x70,0x18,0x18,0x0C,0x18,0x18,0x70,0x00
        70 00
   0372 00 60 F2 9E 0C 00   113 	.byte	0x00,0x60,0xF2,0x9E,0x0C,0x00,0x00,0x00
        00 00
   037A 10 10 28 28 44 44   114 	.byte	0x10,0x10,0x28,0x28,0x44,0x44,0x82,0xFE
        82 FE
