                              1 ; font_spect.ms
                              2 ;	Text font
                              3 ;	Michael Hope, 1998
                              4 ;	michaelh@earthling.net
                              5 ;	Distrubuted under the Artistic License - see www.opensource.org
                              6 ;
                              7 	;; BANKED:	checked, imperfect
                              8 	.module 	font_spect
                              9 	.area	_BASE
   0000                      10 _font_spect::
   0000 05                   11 	.byte	1+4		; 128 character encoding
   0001 60                   12 	.byte	128-32		; Tiles required
                             13 
   0002 00 00 00 00 00 00    14 	.byte	0,0,0,0,0,0,0,0,0,0,0,0,0,0,0,0		; All map to space
        00 00 00 00 00 00
        00 00 00 00
   0012 00 00 00 00 00 00    15 	.byte	0,0,0,0,0,0,0,0,0,0,0,0,0,0,0,0
        00 00 00 00 00 00
        00 00 00 00
   0022 00 01 02 03 04 05    16 	.byte	0,1,2,3,4,5,6,7,8,9,10,11,12,13,14,15	; 0x20
        06 07 08 09 0A 0B
        0C 0D 0E 0F
   0032 10 11 12 13 14 15    17 	.byte	16,17,18,19,20,21,22,23,24,25,26,27,28,29,30,31
        16 17 18 19 1A 1B
        1C 1D 1E 1F
   0042 20 21 22 23 24 25    18 	.byte	32,33,34,35,36,37,38,39,40,41,42,43,44,45,46,47 ; 0x40
        26 27 28 29 2A 2B
        2C 2D 2E 2F
   0052 30 31 32 33 34 35    19 	.byte	48,49,50,51,52,53,54,55,56,57,58,59,60,61,62,63
        36 37 38 39 3A 3B
        3C 3D 3E 3F
   0062 40 41 42 43 44 45    20 	.byte	64,65,66,67,68,69,70,71,72,73,74,75,76,77,78,79 ; 0x60
        46 47 48 49 4A 4B
        4C 4D 4E 4F
   0072 50 51 52 53 54 55    21 	.byte	80,81,82,83,84,85,86,87,88,89,90,91,92,93,94,95
        56 57 58 59 5A 5B
        5C 5D 5E 5F
                             22 
   0082 00                   23 	.db	0
   0083 00                   24         .db    0b00000000 
   0084 00                   25         .db    0b00000000 
   0085 00                   26         .db    0b00000000 
   0086 00                   27         .db    0b00000000 
   0087 00                   28         .db    0b00000000 
   0088 00                   29         .db    0b00000000 
   0089 00                   30         .db    0b00000000 
                             31 ; Character: !
   008A 00                   32         .db    0b00000000 
   008B 10                   33         .db    0b00010000 
   008C 10                   34         .db    0b00010000 
   008D 10                   35         .db    0b00010000 
   008E 10                   36         .db    0b00010000 
   008F 00                   37         .db    0b00000000 
   0090 10                   38         .db    0b00010000 
   0091 00                   39         .db    0b00000000 
                             40 ; Character: "
   0092 00                   41         .db    0b00000000 
   0093 24                   42         .db    0b00100100 
   0094 24                   43         .db    0b00100100 
   0095 00                   44         .db    0b00000000 
   0096 00                   45         .db    0b00000000 
   0097 00                   46         .db    0b00000000 
   0098 00                   47         .db    0b00000000 
   0099 00                   48         .db    0b00000000 
                             49 ; Character: #
   009A 00                   50         .db    0b00000000 
   009B 24                   51         .db    0b00100100 
   009C 7E                   52         .db    0b01111110 
   009D 24                   53         .db    0b00100100 
   009E 24                   54         .db    0b00100100 
   009F 7E                   55         .db    0b01111110 
   00A0 24                   56         .db    0b00100100 
   00A1 00                   57         .db    0b00000000 
                             58 ; Character: $
   00A2 00                   59         .db    0b00000000 
   00A3 08                   60         .db    0b00001000 
   00A4 3E                   61         .db    0b00111110 
   00A5 28                   62         .db    0b00101000 
   00A6 3E                   63         .db    0b00111110 
   00A7 0A                   64         .db    0b00001010 
   00A8 3E                   65         .db    0b00111110 
   00A9 08                   66         .db    0b00001000 
                             67 ; Character: %
   00AA 00                   68         .db    0b00000000 
   00AB 62                   69         .db    0b01100010 
   00AC 64                   70         .db    0b01100100 
   00AD 08                   71         .db    0b00001000 
   00AE 10                   72         .db    0b00010000 
   00AF 26                   73         .db    0b00100110 
   00B0 46                   74         .db    0b01000110 
   00B1 00                   75         .db    0b00000000 
                             76 ; Character: &
   00B2 00                   77         .db    0b00000000 
   00B3 10                   78         .db    0b00010000 
   00B4 28                   79         .db    0b00101000 
   00B5 10                   80         .db    0b00010000 
   00B6 2A                   81         .db    0b00101010 
   00B7 44                   82         .db    0b01000100 
   00B8 3A                   83         .db    0b00111010 
   00B9 00                   84         .db    0b00000000 
                             85 ; Character: '
   00BA 00                   86         .db    0b00000000 
   00BB 08                   87         .db    0b00001000 
   00BC 10                   88         .db    0b00010000 
   00BD 00                   89         .db    0b00000000 
   00BE 00                   90         .db    0b00000000 
   00BF 00                   91         .db    0b00000000 
   00C0 00                   92         .db    0b00000000 
   00C1 00                   93         .db    0b00000000 
                             94 ; Character: (
   00C2 00                   95         .db    0b00000000 
   00C3 04                   96         .db    0b00000100 
   00C4 08                   97         .db    0b00001000 
   00C5 08                   98         .db    0b00001000 
   00C6 08                   99         .db    0b00001000 
   00C7 08                  100         .db    0b00001000 
   00C8 04                  101         .db    0b00000100 
   00C9 00                  102         .db    0b00000000 
                            103 ; Character: )
   00CA 00                  104         .db    0b00000000 
   00CB 20                  105         .db    0b00100000 
   00CC 10                  106         .db    0b00010000 
   00CD 10                  107         .db    0b00010000 
   00CE 10                  108         .db    0b00010000 
   00CF 10                  109         .db    0b00010000 
   00D0 20                  110         .db    0b00100000 
   00D1 00                  111         .db    0b00000000 
                            112 ; Character: *
   00D2 00                  113         .db    0b00000000 
   00D3 00                  114         .db    0b00000000 
   00D4 14                  115         .db    0b00010100 
   00D5 08                  116         .db    0b00001000 
   00D6 3E                  117         .db    0b00111110 
   00D7 08                  118         .db    0b00001000 
   00D8 14                  119         .db    0b00010100 
   00D9 00                  120         .db    0b00000000 
                            121 ; Character: +
   00DA 00                  122         .db    0b00000000 
   00DB 00                  123         .db    0b00000000 
   00DC 08                  124         .db    0b00001000 
   00DD 08                  125         .db    0b00001000 
   00DE 3E                  126         .db    0b00111110 
   00DF 08                  127         .db    0b00001000 
   00E0 08                  128         .db    0b00001000 
   00E1 00                  129         .db    0b00000000 
                            130 ; Character: ,
   00E2 00                  131         .db    0b00000000 
   00E3 00                  132         .db    0b00000000 
   00E4 00                  133         .db    0b00000000 
   00E5 00                  134         .db    0b00000000 
   00E6 00                  135         .db    0b00000000 
   00E7 08                  136         .db    0b00001000 
   00E8 08                  137         .db    0b00001000 
   00E9 10                  138         .db    0b00010000 
                            139 ; Character: -
   00EA 00                  140         .db    0b00000000 
   00EB 00                  141         .db    0b00000000 
   00EC 00                  142         .db    0b00000000 
   00ED 00                  143         .db    0b00000000 
   00EE 3E                  144         .db    0b00111110 
   00EF 00                  145         .db    0b00000000 
   00F0 00                  146         .db    0b00000000 
   00F1 00                  147         .db    0b00000000 
                            148 ; Character: .
   00F2 00                  149         .db    0b00000000 
   00F3 00                  150         .db    0b00000000 
   00F4 00                  151         .db    0b00000000 
   00F5 00                  152         .db    0b00000000 
   00F6 00                  153         .db    0b00000000 
   00F7 18                  154         .db    0b00011000 
   00F8 18                  155         .db    0b00011000 
   00F9 00                  156         .db    0b00000000 
                            157 ; Character: /
   00FA 00                  158         .db    0b00000000 
   00FB 00                  159         .db    0b00000000 
   00FC 02                  160         .db    0b00000010 
   00FD 04                  161         .db    0b00000100 
   00FE 08                  162         .db    0b00001000 
   00FF 10                  163         .db    0b00010000 
   0100 20                  164         .db    0b00100000 
   0101 00                  165         .db    0b00000000 
                            166 ; Character: 0
   0102 00                  167         .db    0b00000000 
   0103 3C                  168         .db    0b00111100 
   0104 46                  169         .db    0b01000110 
   0105 4A                  170         .db    0b01001010 
   0106 52                  171         .db    0b01010010 
   0107 62                  172         .db    0b01100010 
   0108 3C                  173         .db    0b00111100 
   0109 00                  174         .db    0b00000000 
                            175 ; Character: 1
   010A 00                  176         .db    0b00000000 
   010B 18                  177         .db    0b00011000 
   010C 28                  178         .db    0b00101000 
   010D 08                  179         .db    0b00001000 
   010E 08                  180         .db    0b00001000 
   010F 08                  181         .db    0b00001000 
   0110 3E                  182         .db    0b00111110 
   0111 00                  183         .db    0b00000000 
                            184 ; Character: 2
   0112 00                  185         .db    0b00000000 
   0113 3C                  186         .db    0b00111100 
   0114 42                  187         .db    0b01000010 
   0115 02                  188         .db    0b00000010 
   0116 3C                  189         .db    0b00111100 
   0117 40                  190         .db    0b01000000 
   0118 7E                  191         .db    0b01111110 
   0119 00                  192         .db    0b00000000 
                            193 ; Character: 3
   011A 00                  194         .db    0b00000000 
   011B 3C                  195         .db    0b00111100 
   011C 42                  196         .db    0b01000010 
   011D 0C                  197         .db    0b00001100 
   011E 02                  198         .db    0b00000010 
   011F 42                  199         .db    0b01000010 
   0120 3C                  200         .db    0b00111100 
   0121 00                  201         .db    0b00000000 
                            202 ; Character: 4
   0122 00                  203         .db    0b00000000 
   0123 08                  204         .db    0b00001000 
   0124 18                  205         .db    0b00011000 
   0125 28                  206         .db    0b00101000 
   0126 48                  207         .db    0b01001000 
   0127 7E                  208         .db    0b01111110 
   0128 08                  209         .db    0b00001000 
   0129 00                  210         .db    0b00000000 
                            211 ; Character: 5
   012A 00                  212         .db    0b00000000 
   012B 7E                  213         .db    0b01111110 
   012C 40                  214         .db    0b01000000 
   012D 7C                  215         .db    0b01111100 
   012E 02                  216         .db    0b00000010 
   012F 42                  217         .db    0b01000010 
   0130 3C                  218         .db    0b00111100 
   0131 00                  219         .db    0b00000000 
                            220 ; Character: 6
   0132 00                  221         .db    0b00000000 
   0133 3C                  222         .db    0b00111100 
   0134 40                  223         .db    0b01000000 
   0135 7C                  224         .db    0b01111100 
   0136 42                  225         .db    0b01000010 
   0137 42                  226         .db    0b01000010 
   0138 3C                  227         .db    0b00111100 
   0139 00                  228         .db    0b00000000 
                            229 ; Character: 7
   013A 00                  230         .db    0b00000000 
   013B 7E                  231         .db    0b01111110 
   013C 02                  232         .db    0b00000010 
   013D 04                  233         .db    0b00000100 
   013E 08                  234         .db    0b00001000 
   013F 10                  235         .db    0b00010000 
   0140 10                  236         .db    0b00010000 
   0141 00                  237         .db    0b00000000 
                            238 ; Character: 8
   0142 00                  239         .db    0b00000000 
   0143 3C                  240         .db    0b00111100 
   0144 42                  241         .db    0b01000010 
   0145 3C                  242         .db    0b00111100 
   0146 42                  243         .db    0b01000010 
   0147 42                  244         .db    0b01000010 
   0148 3C                  245         .db    0b00111100 
   0149 00                  246         .db    0b00000000 
                            247 ; Character: 9
   014A 00                  248         .db    0b00000000 
   014B 3C                  249         .db    0b00111100 
   014C 42                  250         .db    0b01000010 
   014D 42                  251         .db    0b01000010 
   014E 3E                  252         .db    0b00111110 
   014F 02                  253         .db    0b00000010 
   0150 3C                  254         .db    0b00111100 
   0151 00                  255         .db    0b00000000 
                            256 ; Character: :
   0152 00                  257         .db    0b00000000 
   0153 00                  258         .db    0b00000000 
   0154 00                  259         .db    0b00000000 
   0155 10                  260         .db    0b00010000 
   0156 00                  261         .db    0b00000000 
   0157 00                  262         .db    0b00000000 
   0158 10                  263         .db    0b00010000 
   0159 00                  264         .db    0b00000000 
                            265 ; Character: ;
   015A 00                  266         .db    0b00000000 
   015B 00                  267         .db    0b00000000 
   015C 10                  268         .db    0b00010000 
   015D 00                  269         .db    0b00000000 
   015E 00                  270         .db    0b00000000 
   015F 10                  271         .db    0b00010000 
   0160 10                  272         .db    0b00010000 
   0161 20                  273         .db    0b00100000 
                            274 ; Character: <
   0162 00                  275         .db    0b00000000 
   0163 00                  276         .db    0b00000000 
   0164 04                  277         .db    0b00000100 
   0165 08                  278         .db    0b00001000 
   0166 10                  279         .db    0b00010000 
   0167 08                  280         .db    0b00001000 
   0168 04                  281         .db    0b00000100 
   0169 00                  282         .db    0b00000000 
                            283 ; Character: =
   016A 00                  284         .db    0b00000000 
   016B 00                  285         .db    0b00000000 
   016C 00                  286         .db    0b00000000 
   016D 3E                  287         .db    0b00111110 
   016E 00                  288         .db    0b00000000 
   016F 3E                  289         .db    0b00111110 
   0170 00                  290         .db    0b00000000 
   0171 00                  291         .db    0b00000000 
                            292 ; Character: >
   0172 00                  293         .db    0b00000000 
   0173 00                  294         .db    0b00000000 
   0174 10                  295         .db    0b00010000 
   0175 08                  296         .db    0b00001000 
   0176 04                  297         .db    0b00000100 
   0177 08                  298         .db    0b00001000 
   0178 10                  299         .db    0b00010000 
   0179 00                  300         .db    0b00000000 
                            301 ; Character: ?
   017A 00                  302         .db    0b00000000 
   017B 3C                  303         .db    0b00111100 
   017C 42                  304         .db    0b01000010 
   017D 04                  305         .db    0b00000100 
   017E 08                  306         .db    0b00001000 
   017F 00                  307         .db    0b00000000 
   0180 08                  308         .db    0b00001000 
   0181 00                  309         .db    0b00000000 
                            310 ; Character: @
   0182 00                  311         .db    0b00000000 
   0183 3C                  312         .db    0b00111100 
   0184 4A                  313         .db    0b01001010 
   0185 56                  314         .db    0b01010110 
   0186 5E                  315         .db    0b01011110 
   0187 40                  316         .db    0b01000000 
   0188 3C                  317         .db    0b00111100 
   0189 00                  318         .db    0b00000000 
                            319 ; Character: A
   018A 00                  320         .db    0b00000000 
   018B 3C                  321         .db    0b00111100 
   018C 42                  322         .db    0b01000010 
   018D 42                  323         .db    0b01000010 
   018E 7E                  324         .db    0b01111110 
   018F 42                  325         .db    0b01000010 
   0190 42                  326         .db    0b01000010 
   0191 00                  327         .db    0b00000000 
                            328 ; Character: B
   0192 00                  329         .db    0b00000000 
   0193 7C                  330         .db    0b01111100 
   0194 42                  331         .db    0b01000010 
   0195 7C                  332         .db    0b01111100 
   0196 42                  333         .db    0b01000010 
   0197 42                  334         .db    0b01000010 
   0198 7C                  335         .db    0b01111100 
   0199 00                  336         .db    0b00000000 
                            337 ; Character: C
   019A 00                  338         .db    0b00000000 
   019B 3C                  339         .db    0b00111100 
   019C 42                  340         .db    0b01000010 
   019D 40                  341         .db    0b01000000 
   019E 40                  342         .db    0b01000000 
   019F 42                  343         .db    0b01000010 
   01A0 3C                  344         .db    0b00111100 
   01A1 00                  345         .db    0b00000000 
                            346 ; Character: D
   01A2 00                  347         .db    0b00000000 
   01A3 78                  348         .db    0b01111000 
   01A4 44                  349         .db    0b01000100 
   01A5 42                  350         .db    0b01000010 
   01A6 42                  351         .db    0b01000010 
   01A7 44                  352         .db    0b01000100 
   01A8 78                  353         .db    0b01111000 
   01A9 00                  354         .db    0b00000000 
                            355 ; Character: E
   01AA 00                  356         .db    0b00000000 
   01AB 7E                  357         .db    0b01111110 
   01AC 40                  358         .db    0b01000000 
   01AD 7C                  359         .db    0b01111100 
   01AE 40                  360         .db    0b01000000 
   01AF 40                  361         .db    0b01000000 
   01B0 7E                  362         .db    0b01111110 
   01B1 00                  363         .db    0b00000000 
                            364 ; Character: F
   01B2 00                  365         .db    0b00000000 
   01B3 7E                  366         .db    0b01111110 
   01B4 40                  367         .db    0b01000000 
   01B5 7C                  368         .db    0b01111100 
   01B6 40                  369         .db    0b01000000 
   01B7 40                  370         .db    0b01000000 
   01B8 40                  371         .db    0b01000000 
   01B9 00                  372         .db    0b00000000 
                            373 ; Character: G
   01BA 00                  374         .db    0b00000000 
   01BB 3C                  375         .db    0b00111100 
   01BC 42                  376         .db    0b01000010 
   01BD 40                  377         .db    0b01000000 
   01BE 4E                  378         .db    0b01001110 
   01BF 42                  379         .db    0b01000010 
   01C0 3C                  380         .db    0b00111100 
   01C1 00                  381         .db    0b00000000 
                            382 ; Character: H
   01C2 00                  383         .db    0b00000000 
   01C3 42                  384         .db    0b01000010 
   01C4 42                  385         .db    0b01000010 
   01C5 7E                  386         .db    0b01111110 
   01C6 42                  387         .db    0b01000010 
   01C7 42                  388         .db    0b01000010 
   01C8 42                  389         .db    0b01000010 
   01C9 00                  390         .db    0b00000000 
                            391 ; Character: I
   01CA 00                  392         .db    0b00000000 
   01CB 3E                  393         .db    0b00111110 
   01CC 08                  394         .db    0b00001000 
   01CD 08                  395         .db    0b00001000 
   01CE 08                  396         .db    0b00001000 
   01CF 08                  397         .db    0b00001000 
   01D0 3E                  398         .db    0b00111110 
   01D1 00                  399         .db    0b00000000 
                            400 ; Character: J
   01D2 00                  401         .db    0b00000000 
   01D3 02                  402         .db    0b00000010 
   01D4 02                  403         .db    0b00000010 
   01D5 02                  404         .db    0b00000010 
   01D6 42                  405         .db    0b01000010 
   01D7 42                  406         .db    0b01000010 
   01D8 3C                  407         .db    0b00111100 
   01D9 00                  408         .db    0b00000000 
                            409 ; Character: K
   01DA 00                  410         .db    0b00000000 
   01DB 44                  411         .db    0b01000100 
   01DC 48                  412         .db    0b01001000 
   01DD 70                  413         .db    0b01110000 
   01DE 48                  414         .db    0b01001000 
   01DF 44                  415         .db    0b01000100 
   01E0 42                  416         .db    0b01000010 
   01E1 00                  417         .db    0b00000000 
                            418 ; Character: L
   01E2 00                  419         .db    0b00000000 
   01E3 40                  420         .db    0b01000000 
   01E4 40                  421         .db    0b01000000 
   01E5 40                  422         .db    0b01000000 
   01E6 40                  423         .db    0b01000000 
   01E7 40                  424         .db    0b01000000 
   01E8 7E                  425         .db    0b01111110 
   01E9 00                  426         .db    0b00000000 
                            427 ; Character: M
   01EA 00                  428         .db    0b00000000 
   01EB 42                  429         .db    0b01000010 
   01EC 66                  430         .db    0b01100110 
   01ED 5A                  431         .db    0b01011010 
   01EE 42                  432         .db    0b01000010 
   01EF 42                  433         .db    0b01000010 
   01F0 42                  434         .db    0b01000010 
   01F1 00                  435         .db    0b00000000 
                            436 ; Character: N
   01F2 00                  437         .db    0b00000000 
   01F3 42                  438         .db    0b01000010 
   01F4 62                  439         .db    0b01100010 
   01F5 52                  440         .db    0b01010010 
   01F6 4A                  441         .db    0b01001010 
   01F7 46                  442         .db    0b01000110 
   01F8 42                  443         .db    0b01000010 
   01F9 00                  444         .db    0b00000000 
                            445 ; Character: O
   01FA 00                  446         .db    0b00000000 
   01FB 3C                  447         .db    0b00111100 
   01FC 42                  448         .db    0b01000010 
   01FD 42                  449         .db    0b01000010 
   01FE 42                  450         .db    0b01000010 
   01FF 42                  451         .db    0b01000010 
   0200 3C                  452         .db    0b00111100 
   0201 00                  453         .db    0b00000000 
                            454 ; Character: P
   0202 00                  455         .db    0b00000000 
   0203 7C                  456         .db    0b01111100 
   0204 42                  457         .db    0b01000010 
   0205 42                  458         .db    0b01000010 
   0206 7C                  459         .db    0b01111100 
   0207 40                  460         .db    0b01000000 
   0208 40                  461         .db    0b01000000 
   0209 00                  462         .db    0b00000000 
                            463 ; Character: Q
   020A 00                  464         .db    0b00000000 
   020B 3C                  465         .db    0b00111100 
   020C 42                  466         .db    0b01000010 
   020D 42                  467         .db    0b01000010 
   020E 52                  468         .db    0b01010010 
   020F 4A                  469         .db    0b01001010 
   0210 3C                  470         .db    0b00111100 
   0211 00                  471         .db    0b00000000 
                            472 ; Character: R
   0212 00                  473         .db    0b00000000 
   0213 7C                  474         .db    0b01111100 
   0214 42                  475         .db    0b01000010 
   0215 42                  476         .db    0b01000010 
   0216 7C                  477         .db    0b01111100 
   0217 44                  478         .db    0b01000100 
   0218 42                  479         .db    0b01000010 
   0219 00                  480         .db    0b00000000 
                            481 ; Character: S
   021A 00                  482         .db    0b00000000 
   021B 3C                  483         .db    0b00111100 
   021C 40                  484         .db    0b01000000 
   021D 3C                  485         .db    0b00111100 
   021E 02                  486         .db    0b00000010 
   021F 42                  487         .db    0b01000010 
   0220 3C                  488         .db    0b00111100 
   0221 00                  489         .db    0b00000000 
                            490 ; Character: T
   0222 00                  491         .db    0b00000000 
   0223 FE                  492         .db    0b11111110 
   0224 10                  493         .db    0b00010000 
   0225 10                  494         .db    0b00010000 
   0226 10                  495         .db    0b00010000 
   0227 10                  496         .db    0b00010000 
   0228 10                  497         .db    0b00010000 
   0229 00                  498         .db    0b00000000 
                            499 ; Character: U
   022A 00                  500         .db    0b00000000 
   022B 42                  501         .db    0b01000010 
   022C 42                  502         .db    0b01000010 
   022D 42                  503         .db    0b01000010 
   022E 42                  504         .db    0b01000010 
   022F 42                  505         .db    0b01000010 
   0230 3C                  506         .db    0b00111100 
   0231 00                  507         .db    0b00000000 
                            508 ; Character: V
   0232 00                  509         .db    0b00000000 
   0233 42                  510         .db    0b01000010 
   0234 42                  511         .db    0b01000010 
   0235 42                  512         .db    0b01000010 
   0236 42                  513         .db    0b01000010 
   0237 24                  514         .db    0b00100100 
   0238 18                  515         .db    0b00011000 
   0239 00                  516         .db    0b00000000 
                            517 ; Character: W
   023A 00                  518         .db    0b00000000 
   023B 42                  519         .db    0b01000010 
   023C 42                  520         .db    0b01000010 
   023D 42                  521         .db    0b01000010 
   023E 42                  522         .db    0b01000010 
   023F 5A                  523         .db    0b01011010 
   0240 24                  524         .db    0b00100100 
   0241 00                  525         .db    0b00000000 
                            526 ; Character: X
   0242 00                  527         .db    0b00000000 
   0243 42                  528         .db    0b01000010 
   0244 24                  529         .db    0b00100100 
   0245 18                  530         .db    0b00011000 
   0246 18                  531         .db    0b00011000 
   0247 24                  532         .db    0b00100100 
   0248 42                  533         .db    0b01000010 
   0249 00                  534         .db    0b00000000 
                            535 ; Character: Y
   024A 00                  536         .db    0b00000000 
   024B 82                  537         .db    0b10000010 
   024C 44                  538         .db    0b01000100 
   024D 28                  539         .db    0b00101000 
   024E 10                  540         .db    0b00010000 
   024F 10                  541         .db    0b00010000 
   0250 10                  542         .db    0b00010000 
   0251 00                  543         .db    0b00000000 
                            544 ; Character: Z
   0252 00                  545         .db    0b00000000 
   0253 7E                  546         .db    0b01111110 
   0254 04                  547         .db    0b00000100 
   0255 08                  548         .db    0b00001000 
   0256 10                  549         .db    0b00010000 
   0257 20                  550         .db    0b00100000 
   0258 7E                  551         .db    0b01111110 
   0259 00                  552         .db    0b00000000 
                            553 ; Character: [
   025A 00                  554         .db    0b00000000 
   025B 0E                  555         .db    0b00001110 
   025C 08                  556         .db    0b00001000 
   025D 08                  557         .db    0b00001000 
   025E 08                  558         .db    0b00001000 
   025F 08                  559         .db    0b00001000 
   0260 0E                  560         .db    0b00001110 
   0261 00                  561         .db    0b00000000 
                            562 ; Character: \
   0262 00                  563         .db    0b00000000 
   0263 00                  564         .db    0b00000000 
   0264 40                  565         .db    0b01000000 
   0265 20                  566         .db    0b00100000 
   0266 10                  567         .db    0b00010000 
   0267 08                  568         .db    0b00001000 
   0268 04                  569         .db    0b00000100 
   0269 00                  570         .db    0b00000000 
                            571 ; Character: ]
   026A 00                  572         .db    0b00000000 
   026B 70                  573         .db    0b01110000 
   026C 10                  574         .db    0b00010000 
   026D 10                  575         .db    0b00010000 
   026E 10                  576         .db    0b00010000 
   026F 10                  577         .db    0b00010000 
   0270 70                  578         .db    0b01110000 
   0271 00                  579         .db    0b00000000 
                            580 ; Character: ^
   0272 00                  581         .db    0b00000000 
   0273 10                  582         .db    0b00010000 
   0274 38                  583         .db    0b00111000 
   0275 54                  584         .db    0b01010100 
   0276 10                  585         .db    0b00010000 
   0277 10                  586         .db    0b00010000 
   0278 10                  587         .db    0b00010000 
   0279 00                  588         .db    0b00000000 
                            589 ; Character: _
   027A 00                  590         .db    0b00000000 
   027B 00                  591         .db    0b00000000 
   027C 00                  592         .db    0b00000000 
   027D 00                  593         .db    0b00000000 
   027E 00                  594         .db    0b00000000 
   027F 00                  595         .db    0b00000000 
   0280 00                  596         .db    0b00000000 
   0281 FF                  597         .db    0b11111111 
                            598 ; Character: Pound
   0282 00                  599         .db    0b00000000 
   0283 1C                  600         .db    0b00011100 
   0284 22                  601         .db    0b00100010 
   0285 78                  602         .db    0b01111000 
   0286 20                  603         .db    0b00100000 
   0287 20                  604         .db    0b00100000 
   0288 7E                  605         .db    0b01111110 
   0289 00                  606         .db    0b00000000 
                            607 ; Character: a
   028A 00                  608         .db    0b00000000 
   028B 00                  609         .db    0b00000000 
   028C 38                  610         .db    0b00111000 
   028D 04                  611         .db    0b00000100 
   028E 3C                  612         .db    0b00111100 
   028F 44                  613         .db    0b01000100 
   0290 3C                  614         .db    0b00111100 
   0291 00                  615         .db    0b00000000 
                            616 ; Character: b
   0292 00                  617         .db    0b00000000 
   0293 20                  618         .db    0b00100000 
   0294 20                  619         .db    0b00100000 
   0295 3C                  620         .db    0b00111100 
   0296 22                  621         .db    0b00100010 
   0297 22                  622         .db    0b00100010 
   0298 3C                  623         .db    0b00111100 
   0299 00                  624         .db    0b00000000 
                            625 ; Character: c
   029A 00                  626         .db    0b00000000 
   029B 00                  627         .db    0b00000000 
   029C 1C                  628         .db    0b00011100 
   029D 20                  629         .db    0b00100000 
   029E 20                  630         .db    0b00100000 
   029F 20                  631         .db    0b00100000 
   02A0 1C                  632         .db    0b00011100 
   02A1 00                  633         .db    0b00000000 
                            634 ; Character: d
   02A2 00                  635         .db    0b00000000 
   02A3 04                  636         .db    0b00000100 
   02A4 04                  637         .db    0b00000100 
   02A5 3C                  638         .db    0b00111100 
   02A6 44                  639         .db    0b01000100 
   02A7 44                  640         .db    0b01000100 
   02A8 3C                  641         .db    0b00111100 
   02A9 00                  642         .db    0b00000000 
                            643 ; Character: e
   02AA 00                  644         .db    0b00000000 
   02AB 00                  645         .db    0b00000000 
   02AC 38                  646         .db    0b00111000 
   02AD 44                  647         .db    0b01000100 
   02AE 78                  648         .db    0b01111000 
   02AF 40                  649         .db    0b01000000 
   02B0 3C                  650         .db    0b00111100 
   02B1 00                  651         .db    0b00000000 
                            652 ; Character: f
   02B2 00                  653         .db    0b00000000 
   02B3 0C                  654         .db    0b00001100 
   02B4 10                  655         .db    0b00010000 
   02B5 18                  656         .db    0b00011000 
   02B6 10                  657         .db    0b00010000 
   02B7 10                  658         .db    0b00010000 
   02B8 10                  659         .db    0b00010000 
   02B9 00                  660         .db    0b00000000 
                            661 ; Character: g
   02BA 00                  662         .db    0b00000000 
   02BB 00                  663         .db    0b00000000 
   02BC 3C                  664         .db    0b00111100 
   02BD 44                  665         .db    0b01000100 
   02BE 44                  666         .db    0b01000100 
   02BF 3C                  667         .db    0b00111100 
   02C0 04                  668         .db    0b00000100 
   02C1 38                  669         .db    0b00111000 
                            670 ; Character: h
   02C2 00                  671         .db    0b00000000 
   02C3 40                  672         .db    0b01000000 
   02C4 40                  673         .db    0b01000000 
   02C5 78                  674         .db    0b01111000 
   02C6 44                  675         .db    0b01000100 
   02C7 44                  676         .db    0b01000100 
   02C8 44                  677         .db    0b01000100 
   02C9 00                  678         .db    0b00000000 
                            679 ; Character: i
   02CA 00                  680         .db    0b00000000 
   02CB 10                  681         .db    0b00010000 
   02CC 00                  682         .db    0b00000000 
   02CD 30                  683         .db    0b00110000 
   02CE 10                  684         .db    0b00010000 
   02CF 10                  685         .db    0b00010000 
   02D0 38                  686         .db    0b00111000 
   02D1 00                  687         .db    0b00000000 
                            688 ; Character: j
   02D2 00                  689         .db    0b00000000 
   02D3 04                  690         .db    0b00000100 
   02D4 00                  691         .db    0b00000000 
   02D5 04                  692         .db    0b00000100 
   02D6 04                  693         .db    0b00000100 
   02D7 04                  694         .db    0b00000100 
   02D8 24                  695         .db    0b00100100 
   02D9 18                  696         .db    0b00011000 
                            697 ; Character: k
   02DA 00                  698         .db    0b00000000 
   02DB 20                  699         .db    0b00100000 
   02DC 28                  700         .db    0b00101000 
   02DD 30                  701         .db    0b00110000 
   02DE 30                  702         .db    0b00110000 
   02DF 28                  703         .db    0b00101000 
   02E0 24                  704         .db    0b00100100 
   02E1 00                  705         .db    0b00000000 
                            706 ; Character: l
   02E2 00                  707         .db    0b00000000 
   02E3 10                  708         .db    0b00010000 
   02E4 10                  709         .db    0b00010000 
   02E5 10                  710         .db    0b00010000 
   02E6 10                  711         .db    0b00010000 
   02E7 10                  712         .db    0b00010000 
   02E8 0C                  713         .db    0b00001100 
   02E9 00                  714         .db    0b00000000 
                            715 ; Character: m
   02EA 00                  716         .db    0b00000000 
   02EB 00                  717         .db    0b00000000 
   02EC 68                  718         .db    0b01101000 
   02ED 54                  719         .db    0b01010100 
   02EE 54                  720         .db    0b01010100 
   02EF 54                  721         .db    0b01010100 
   02F0 54                  722         .db    0b01010100 
   02F1 00                  723         .db    0b00000000 
                            724 ; Character: n
   02F2 00                  725         .db    0b00000000 
   02F3 00                  726         .db    0b00000000 
   02F4 78                  727         .db    0b01111000 
   02F5 44                  728         .db    0b01000100 
   02F6 44                  729         .db    0b01000100 
   02F7 44                  730         .db    0b01000100 
   02F8 44                  731         .db    0b01000100 
   02F9 00                  732         .db    0b00000000 
                            733 ; Character: o
   02FA 00                  734         .db    0b00000000 
   02FB 00                  735         .db    0b00000000 
   02FC 38                  736         .db    0b00111000 
   02FD 44                  737         .db    0b01000100 
   02FE 44                  738         .db    0b01000100 
   02FF 44                  739         .db    0b01000100 
   0300 38                  740         .db    0b00111000 
   0301 00                  741         .db    0b00000000 
                            742 ; Character: p
   0302 00                  743         .db    0b00000000 
   0303 00                  744         .db    0b00000000 
   0304 78                  745         .db    0b01111000 
   0305 44                  746         .db    0b01000100 
   0306 44                  747         .db    0b01000100 
   0307 78                  748         .db    0b01111000 
   0308 40                  749         .db    0b01000000 
   0309 40                  750         .db    0b01000000 
                            751 ; Character: q
   030A 00                  752         .db    0b00000000 
   030B 00                  753         .db    0b00000000 
   030C 3C                  754         .db    0b00111100 
   030D 44                  755         .db    0b01000100 
   030E 44                  756         .db    0b01000100 
   030F 3C                  757         .db    0b00111100 
   0310 04                  758         .db    0b00000100 
   0311 06                  759         .db    0b00000110 
                            760 ; Character: r
   0312 00                  761         .db    0b00000000 
   0313 00                  762         .db    0b00000000 
   0314 1C                  763         .db    0b00011100 
   0315 20                  764         .db    0b00100000 
   0316 20                  765         .db    0b00100000 
   0317 20                  766         .db    0b00100000 
   0318 20                  767         .db    0b00100000 
   0319 00                  768         .db    0b00000000 
                            769 ; Character: s
   031A 00                  770         .db    0b00000000 
   031B 00                  771         .db    0b00000000 
   031C 38                  772         .db    0b00111000 
   031D 40                  773         .db    0b01000000 
   031E 38                  774         .db    0b00111000 
   031F 04                  775         .db    0b00000100 
   0320 78                  776         .db    0b01111000 
   0321 00                  777         .db    0b00000000 
                            778 ; Character: t
   0322 00                  779         .db    0b00000000 
   0323 10                  780         .db    0b00010000 
   0324 38                  781         .db    0b00111000 
   0325 10                  782         .db    0b00010000 
   0326 10                  783         .db    0b00010000 
   0327 10                  784         .db    0b00010000 
   0328 0C                  785         .db    0b00001100 
   0329 00                  786         .db    0b00000000 
                            787 ; Character: u
   032A 00                  788         .db    0b00000000 
   032B 00                  789         .db    0b00000000 
   032C 44                  790         .db    0b01000100 
   032D 44                  791         .db    0b01000100 
   032E 44                  792         .db    0b01000100 
   032F 44                  793         .db    0b01000100 
   0330 38                  794         .db    0b00111000 
   0331 00                  795         .db    0b00000000 
                            796 ; Character: v
   0332 00                  797         .db    0b00000000 
   0333 00                  798         .db    0b00000000 
   0334 44                  799         .db    0b01000100 
   0335 44                  800         .db    0b01000100 
   0336 28                  801         .db    0b00101000 
   0337 28                  802         .db    0b00101000 
   0338 10                  803         .db    0b00010000 
   0339 00                  804         .db    0b00000000 
                            805 ; Character: w
   033A 00                  806         .db    0b00000000 
   033B 00                  807         .db    0b00000000 
   033C 44                  808         .db    0b01000100 
   033D 54                  809         .db    0b01010100 
   033E 54                  810         .db    0b01010100 
   033F 54                  811         .db    0b01010100 
   0340 28                  812         .db    0b00101000 
   0341 00                  813         .db    0b00000000 
                            814 ; Character: x
   0342 00                  815         .db    0b00000000 
   0343 00                  816         .db    0b00000000 
   0344 44                  817         .db    0b01000100 
   0345 28                  818         .db    0b00101000 
   0346 10                  819         .db    0b00010000 
   0347 28                  820         .db    0b00101000 
   0348 44                  821         .db    0b01000100 
   0349 00                  822         .db    0b00000000 
                            823 ; Character: y
   034A 00                  824         .db    0b00000000 
   034B 00                  825         .db    0b00000000 
   034C 44                  826         .db    0b01000100 
   034D 44                  827         .db    0b01000100 
   034E 44                  828         .db    0b01000100 
   034F 3C                  829         .db    0b00111100 
   0350 04                  830         .db    0b00000100 
   0351 38                  831         .db    0b00111000 
                            832 ; Character: z
   0352 00                  833         .db    0b00000000 
   0353 00                  834         .db    0b00000000 
   0354 7C                  835         .db    0b01111100 
   0355 08                  836         .db    0b00001000 
   0356 10                  837         .db    0b00010000 
   0357 20                  838         .db    0b00100000 
   0358 7C                  839         .db    0b01111100 
   0359 00                  840         .db    0b00000000 
                            841 ; Character: {
   035A 00                  842         .db    0b00000000 
   035B 0E                  843         .db    0b00001110 
   035C 08                  844         .db    0b00001000 
   035D 30                  845         .db    0b00110000 
   035E 08                  846         .db    0b00001000 
   035F 08                  847         .db    0b00001000 
   0360 0E                  848         .db    0b00001110 
   0361 00                  849         .db    0b00000000 
                            850 ; Character: |
   0362 00                  851         .db    0b00000000 
   0363 08                  852         .db    0b00001000 
   0364 08                  853         .db    0b00001000 
   0365 08                  854         .db    0b00001000 
   0366 08                  855         .db    0b00001000 
   0367 08                  856         .db    0b00001000 
   0368 08                  857         .db    0b00001000 
   0369 00                  858         .db    0b00000000 
                            859 ; Character: }
   036A 00                  860         .db    0b00000000 
   036B 70                  861         .db    0b01110000 
   036C 10                  862         .db    0b00010000 
   036D 0C                  863         .db    0b00001100 
   036E 10                  864         .db    0b00010000 
   036F 10                  865         .db    0b00010000 
   0370 70                  866         .db    0b01110000 
   0371 00                  867         .db    0b00000000 
                            868 ; Character: ~
   0372 00                  869         .db    0b00000000 
   0373 14                  870         .db    0b00010100 
   0374 28                  871         .db    0b00101000 
   0375 00                  872         .db    0b00000000 
   0376 00                  873         .db    0b00000000 
   0377 00                  874         .db    0b00000000 
   0378 00                  875         .db    0b00000000 
   0379 00                  876         .db    0b00000000 
                            877 ; Character: Copyright
   037A 3C                  878         .db    0b00111100 
   037B 42                  879         .db    0b01000010 
   037C 99                  880         .db    0b10011001 
   037D A1                  881         .db    0b10100001 
   037E A1                  882         .db    0b10100001 
   037F 99                  883         .db    0b10011001 
   0380 42                  884         .db    0b01000010 
   0381 3C                  885         .db    0b00111100 
